IEEE9BUS.raw
0,   100.00, 31, 0, 1, 50.00     / PSS(R)E 31 RAW created by rawd31  SUN, JAN 30 2022  21:00


     1,'            ', 132.0000,3,   1,   1,   1,1.03000,   0.0000
     2,'            ', 132.0000,1,   1,   1,   1,0.97446,  -2.0488
     3,'            ', 132.0000,1,   1,   1,   1,0.92338,  -4.1464
     4,'            ', 132.0000,1,   1,   1,   1,0.93302,  -3.7698
     5,'            ', 132.0000,2,   1,   1,   1,0.91123,  -5.1017
     6,'            ', 132.0000,1,   1,   1,   1,0.87709,  -5.6053
     7,'            ', 132.0000,2,   1,   1,   1,0.87026,  -6.7324
     8,'            ', 132.0000,1,   1,   1,   1,0.86381,  -7.0706
     9,'            ', 132.0000,1,   1,   1,   1,0.88426,  -5.7516
0 / END OF BUS DATA, BEGIN LOAD DATA
     2,'1 ',1,   1,   1,    10.000,     5.000,     0.000,     0.000,     0.000,     0.000,   1
     3,'1 ',1,   1,   1,    25.000,    15.000,     0.000,     0.000,     0.000,     0.000,   1
     4,'1 ',1,   1,   1,    60.000,    40.000,     0.000,     0.000,     0.000,     0.000,   1
     5,'1 ',1,   1,   1,    10.000,    50.000,     0.000,     0.000,     0.000,     0.000,   1
     6,'1 ',1,   1,   1,   100.000,    80.000,     0.000,     0.000,     0.000,     0.000,   1
     7,'1 ',1,   1,   1,    80.000,    60.000,     0.000,     0.000,     0.000,     0.000,   1
     8,'1 ',1,   1,   1,    40.000,    20.000,     0.000,     0.000,     0.000,     0.000,   1
     9,'1 ',1,   1,   1,    20.000,    10.000,     0.000,     0.000,     0.000,     0.000,   1
0 / END OF LOAD DATA, BEGIN FIXED SHUNT DATA
0 / END OF FIXED SHUNT DATA, BEGIN GENERATOR DATA
     1,'1 ',   286.288,   237.841,   300.000,  -300.000,1.03000,     0,   100.000, 0.00000E+0, 5.00000E-2, 0.00000E+0, 0.00000E+0,1.00000,1,  100.0,   300.000,     0.000,   1,1.0000
     5,'1 ',    80.000,   100.000,   100.000,  -100.000,1.06000,     0,   100.000, 0.00000E+0, 8.00000E-2, 0.00000E+0, 0.00000E+0,1.00000,1,  100.0,   100.000, -9999.000,   1,1.0000
     8,'1 ',   120.000,     0.000,   150.000,  -150.000,1.01000,     0,   100.000, 0.00000E+0, 1.00000E-1, 0.00000E+0, 0.00000E+0,1.00000,1,  100.0,   150.000,     0.000,   1,1.0000
0 / END OF GENERATOR DATA, BEGIN BRANCH DATA
     1,      2,'1 ', 1.80000E-2, 5.40000E-2,   0.00450,   80.00,    0.00,    0.00,  0.00000,  0.00000,  0.00000,  0.00000,1,1,   0.00,   1,1.0000
     1,      4,'1 ', 1.50000E-2, 4.50000E-2,   0.00380,  150.00,  150.00,    0.00,  0.00000,  0.00000,  0.00000,  0.00000,1,1,   0.00,   1,1.0000
     2,      3,'1 ', 1.80000E-2, 5.60000E-2,   0.00000,   50.00,   50.00,    0.00,  0.00000,  0.00000,  0.00000,  0.00000,1,1,   0.00,   1,1.0000
     3,      9,'1 ', 2.00000E-2, 6.00000E-2,   0.00000,   20.00,   20.00,    0.00,  0.00000,  0.00000,  0.00000,  0.00000,1,1,   0.00,   1,1.0000
     4,      5,'1 ', 1.30000E-2, 3.60000E-2,   0.00300,   40.00,   40.00,    0.00,  0.00000,  0.00000,  0.00000,  0.00000,1,1,   0.00,   1,1.0000
     4,      6,'1 ', 2.00000E-2, 6.60000E-2,   0.00000,   50.00,   50.00,    0.00,  0.00000,  0.00000,  0.00000,  0.00000,1,1,   0.00,   1,1.0000
     5,      6,'1 ', 6.00000E-2, 3.00000E-2,   0.00280,   45.00,   45.00,    0.00,  0.00000,  0.00000,  0.00000,  0.00000,1,1,   0.00,   1,1.0000
     5,      7,'1 ', 1.40000E-2, 3.60000E-2,   0.00300,   75.00,   75.00,    0.00,  0.00000,  0.00000,  0.00000,  0.00000,1,1,   0.00,   1,1.0000
     6,      9,'1 ', 1.00000E-2, 5.00000E-2,   0.00000,   35.00,   35.00,    0.00,  0.00000,  0.00000,  0.00000,  0.00000,1,1,   0.00,   1,1.0000
     7,      8,'1 ', 3.20000E-2, 7.60000E-2,   0.00000,   65.00,   65.00,    0.00,  0.00000,  0.00000,  0.00000,  0.00000,1,1,   0.00,   1,1.0000
     8,      9,'1 ', 2.20000E-2, 6.50000E-2,   0.00000,   45.00,   45.00,    0.00,  0.00000,  0.00000,  0.00000,  0.00000,1,1,   0.00,   1,1.0000
0 / END OF BRANCH DATA, BEGIN TRANSFORMER DATA
0 / END OF TRANSFORMER DATA, BEGIN AREA DATA
0 / END OF AREA DATA, BEGIN TWO-TERMINAL DC DATA
0 / END OF TWO-TERMINAL DC DATA, BEGIN VSC DC LINE DATA
0 / END OF VSC DC LINE DATA, BEGIN IMPEDANCE CORRECTION DATA
0 / END OF IMPEDANCE CORRECTION DATA, BEGIN MULTI-TERMINAL DC DATA
0 / END OF MULTI-TERMINAL DC DATA, BEGIN MULTI-SECTION LINE DATA
0 / END OF MULTI-SECTION LINE DATA, BEGIN ZONE DATA
0 / END OF ZONE DATA, BEGIN INTER-AREA TRANSFER DATA
0 / END OF INTER-AREA TRANSFER DATA, BEGIN OWNER DATA
0 / END OF OWNER DATA, BEGIN FACTS DEVICE DATA
0 / END OF FACTS DEVICE DATA, BEGIN SWITCHED SHUNT DATA
0 / END OF SWITCHED SHUNT DATA
Q
